**
** Heading +++++++++++++++++++++++++++++++++++++++++++++++++
**
*Heading
Model: Model-1,     Date: 09/28/2018
**
** Nodes +++++++++++++++++++++++++++++++++++++++++++++++++++
**
*Node
1, 9.42340000E+001, 9.66312190E+000, 3.55600000E+000
2, 1.15357764E+002, 2.18732358E-001, 3.55600000E+000
3, 9.42340000E+001, 1.07521150E+001, 3.55600000E+000
4, 1.06590323E+002, 4.99413641E+001, 3.55600000E+000
5, 9.42340000E+001, 9.66312190E+000, -3.55600000E+000
6, 1.15357764E+002, 2.18732358E-001, -3.55600000E+000
7, 9.42340000E+001, 4.25694151E+001, 1.90500000E+001
8, 9.42340000E+001, 2.08882680E+001, 1.11587078E+001
9, 9.42340000E+001, 4.31348719E+001, 1.90500000E+001
10, 9.42340000E+001, 2.08882680E+001, 6.60400000E+000
11, 9.42340000E+001, 4.31348719E+001, -1.90500000E+001
12, 9.42340000E+001, 4.25694151E+001, -1.90500000E+001
13, 9.42340000E+001, 2.08882680E+001, -1.11587078E+001
14, 9.42340000E+001, 2.08882680E+001, -6.60400000E+000
15, 9.42340000E+001, 1.07521150E+001, -3.55600000E+000
16, 1.05444072E+002, 5.64420746E+001, 6.60400000E+000
17, 1.05444072E+002, 5.64420746E+001, 1.90500000E+001
18, 1.05168749E+002, 5.80035074E+001, 1.90500000E+001
19, 1.05168749E+002, 5.80035074E+001, -1.90500000E+001
20, 1.05444072E+002, 5.64420746E+001, -1.90500000E+001
** ... 3669 like lines cut
**
** Elements ++++++++++++++++++++++++++++++++++++++++++++++++
**
*Element, Type=C3D4, Elset=Solid_Part-1
5725, 1423, 2526, 2987, 1387
5726, 3218, 3219, 3220, 3221
5727, 668, 1354, 656, 627
5728, 3192, 3012, 2952, 3105
5729, 247, 938, 3223, 246
5730, 1427, 2988, 1446, 1450
5731, 3407, 15, 647, 648
5732, 2960, 2080, 2949, 2074
5733, 3150, 3172, 3152, 3136
5734, 2960, 1796, 1689, 1648
5735, 2760, 3177, 2766, 3185
5736, 491, 3547, 2245, 3320
5737, 3344, 730, 2554, 741
5738, 20, 19, 2932, 174
5739, 677, 188, 1375, 329
5740, 2905, 2906, 2924, 2914
5741, 3547, 3320, 491, 978
5742, 586, 108, 575, 3224
5743, 3225, 67, 435, 1924
5744, 438, 3039, 1992, 3226
** ... 14007 like lines cut
**
** Node sets +++++++++++++++++++++++++++++++++++++++++++++++
**
*Nset, Nset=bearing_faces
83, 84, 85, 88, 89, 90, 519, 520, 521, 522, 523, 524, 525, 526, 527, 528, 
529, 530, 543, 544, 545, 546, 547, 548, 549, 550, 551, 552, 553, 554, 555, 556, 
557, 2422, 2423, 2424, 2425, 2426, 2427, 2428, 2429, 2430, 2431, 2432, 2433, 2434, 2435, 2436, 
2437, 2438, 2439, 2440, 2441, 2442, 2443, 2444, 2445, 2446, 2447, 2448, 2449, 2450, 2451, 2452, 
2453, 2454, 2455, 2456, 2457
*Nset, Nset=bolt1_faces
103, 104, 105, 106, 570, 571, 572, 573, 2500, 2501, 2502, 2503, 2504, 2505
*Nset, Nset=bolt2_faces
91, 92, 93, 94, 558, 559, 560, 561, 2470, 2471, 2472, 2473, 2474, 2475
*Nset, Nset=bolt3_faces
99, 100, 101, 102, 566, 567, 568, 569, 2490, 2491, 2492, 2493, 2494, 2495
*Nset, Nset=bolt4_faces
95, 96, 97, 98, 562, 563, 564, 565, 2480, 2481, 2482, 2483, 2484, 2485
**
** Element sets ++++++++++++++++++++++++++++++++++++++++++++
**
*Elset, Elset=nondesign_space
18285, 18286, 18287, 18288, 18289, 18290, 18291, 18292, 18293, 18294, 18295, 18296, 18297, 18298, 18299, 18300, 
18301, 18302, 18303, 18304, 18305, 18306, 18307, 18308, 18309, 18310, 18311, 18312, 18313, 18314, 18315, 18316, 
18317, 18318, 18319, 18320, 18321, 18322, 18323, 18324, 18325, 18326, 18327, 18328, 18329, 18330, 18331, 18332, 
18333, 18334, 18335, 18336, 18337, 18338, 18339, 18340, 18341, 18342, 18343, 18344, 18345, 18346, 18347, 18348, 
18349, 18350, 18351, 18352, 18353, 18354, 18355, 18356, 18357, 18358, 18359, 18360, 18361, 18362, 18363, 18364, 
18365, 18366, 18367, 18368, 18369, 18370, 18371, 18372, 18373, 18374, 18375, 18376, 18377, 18378, 18379, 18380, 
18381, 18382, 18383, 18384, 18385, 18386, 18387, 18388, 18389, 18390, 18391, 18392, 18393, 18394, 18395, 18396, 
18397, 18398, 18399, 18400, 18401, 18402, 18403, 18404, 18405, 18406, 18407, 18408, 18409, 18410, 18411, 18412, 
18413, 18414, 18415, 18416, 18417, 18418, 18419, 18420, 18421, 18422, 18423, 18424, 18425, 18426, 18427, 18428, 
18429, 18430, 18431, 18432, 18433, 18434, 18435, 18436, 18437, 18438, 18439, 18440, 18441, 18442, 18443, 18444, 
18445, 18446, 18447, 18448, 18449, 18450, 18451, 18452, 18453, 18454, 18455, 18456, 18457, 18458, 18459, 18460, 
18461, 18462, 18463, 18464, 18465, 18466, 18467, 18468, 18469, 18470, 18471, 18472, 18473, 18474, 18475, 18476, 
18477, 18478, 18479, 18480, 18481, 18482, 18483, 18484, 18485, 18486, 18487, 18488, 18489, 18490, 18491, 18492, 
18493, 18494, 18495, 18496, 18497, 18498, 18499, 18500, 18501, 18502, 18503, 18504, 18505, 18506, 18507, 18508, 
18509, 18510, 18511, 18512, 18513, 18514, 18515, 18516, 18517, 18518, 18519, 18520, 18521, 18522, 18523, 18524, 
18525, 18526, 18527, 18528, 18529, 18530, 18531, 18532, 18533, 18534, 18535, 18536, 18537, 18538, 18539, 18540, 
18541, 18542, 18543, 18544, 18545, 18546, 18547, 18548, 18549, 18550, 18551, 18552, 18553, 18554, 18555, 18556, 
18557, 18558, 18559, 18560, 18561, 18562, 18563, 18564, 18565, 18566, 18567, 18568, 18569, 18570, 18571, 18572, 
18573, 18574, 18575, 18576, 18577, 18578, 18579, 18580, 18581, 18582, 18583, 18584, 18585, 18586, 18587, 18588, 
18589, 18590, 18591, 18592, 18593, 18594, 18595, 18596, 18597, 18598, 18599, 18600, 18601, 18602, 18603, 18604, 
** ... 72 like lines cut
*Elset, Elset=design_space
5725, 5726, 5727, 5728, 5729, 5730, 5731, 5732, 5733, 5734, 5735, 5736, 5737, 5738, 5739, 5740, 
5741, 5742, 5743, 5744, 5745, 5746, 5747, 5748, 5749, 5750, 5751, 5752, 5753, 5754, 5755, 5756, 
5757, 5758, 5759, 5760, 5761, 5762, 5763, 5764, 5765, 5766, 5767, 5768, 5769, 5770, 5771, 5772, 
5773, 5774, 5775, 5776, 5777, 5778, 5779, 5780, 5781, 5782, 5783, 5784, 5785, 5786, 5787, 5788, 
5789, 5790, 5791, 5792, 5793, 5794, 5795, 5796, 5797, 5798, 5799, 5800, 5801, 5802, 5803, 5804, 
5805, 5806, 5807, 5808, 5809, 5810, 5811, 5812, 5813, 5814, 5815, 5816, 5817, 5818, 5819, 5820, 
5821, 5822, 5823, 5824, 5825, 5826, 5827, 5828, 5829, 5830, 5831, 5832, 5833, 5834, 5835, 5836, 
5837, 5838, 5839, 5840, 5841, 5842, 5843, 5844, 5845, 5846, 5847, 5848, 5849, 5850, 5851, 5852, 
5853, 5854, 5855, 5856, 5857, 5858, 5859, 5860, 5861, 5862, 5863, 5864, 5865, 5866, 5867, 5868, 
5869, 5870, 5871, 5872, 5873, 5874, 5875, 5876, 5877, 5878, 5879, 5880, 5881, 5882, 5883, 5884, 
5885, 5886, 5887, 5888, 5889, 5890, 5891, 5892, 5893, 5894, 5895, 5896, 5897, 5898, 5899, 5900, 
5901, 5902, 5903, 5904, 5905, 5906, 5907, 5908, 5909, 5910, 5911, 5912, 5913, 5914, 5915, 5916, 
5917, 5918, 5919, 5920, 5921, 5922, 5923, 5924, 5925, 5926, 5927, 5928, 5929, 5930, 5931, 5932, 
5933, 5934, 5935, 5936, 5937, 5938, 5939, 5940, 5941, 5942, 5943, 5944, 5945, 5946, 5947, 5948, 
5949, 5950, 5951, 5952, 5953, 5954, 5955, 5956, 5957, 5958, 5959, 5960, 5961, 5962, 5963, 5964, 
5965, 5966, 5967, 5968, 5969, 5970, 5971, 5972, 5973, 5974, 5975, 5976, 5977, 5978, 5979, 5980, 
5981, 5982, 5983, 5984, 5985, 5986, 5987, 5988, 5989, 5990, 5991, 5992, 5993, 5994, 5995, 5996, 
5997, 5998, 5999, 6000, 6001, 6002, 6003, 6004, 6005, 6006, 6007, 6008, 6009, 6010, 6011, 6012, 
6013, 6014, 6015, 6016, 6017, 6018, 6019, 6020, 6021, 6022, 6023, 6024, 6025, 6026, 6027, 6028, 
6029, 6030, 6031, 6032, 6033, 6034, 6035, 6036, 6037, 6038, 6039, 6040, 6041, 6042, 6043, 6044, 
** ... 765 like lines cut

**
** Surfaces ++++++++++++++++++++++++++++++++++++++++++++++++
**
**
** Materials +++++++++++++++++++++++++++++++++++++++++++++++
**
*Material, Name=Material-1
*Elastic
200000, 0.27
**
** Sections ++++++++++++++++++++++++++++++++++++++++++++++++
**
*Solid section, Elset=design_space, Material=Material-1
*Solid section, Elset=nondesign_space, Material=Material-1
**
** Constraints +++++++++++++++++++++++++++++++++++++++++++++
**
*Rigid body, Nset=bearing_faces, Ref node=3688, Rot node=3689
**
** Steps +++++++++++++++++++++++++++++++++++++++++++++++++++
**
**
** Step-1 ++++++++++++++++++++++++++++++++++++++++++++++++++
**
*Step
*Static
**
** Boundary conditions +++++++++++++++++++++++++++++++++++++
**
*Boundary, op=NEW
** Name: BC-1
*Boundary
bolt1_faces, 1, 1, 0
bolt1_faces, 2, 2, 0
bolt1_faces, 3, 3, 0
** Name: BC-2
*Boundary
bolt2_faces, 1, 1, 0
bolt2_faces, 2, 2, 0
bolt2_faces, 3, 3, 0
** Name: BC-3
*Boundary
bolt3_faces, 1, 1, 0
bolt3_faces, 2, 2, 0
bolt3_faces, 3, 3, 0
** Name: BC-4
*Boundary
bolt4_faces, 1, 1, 0
bolt4_faces, 2, 2, 0
bolt4_faces, 3, 3, 0
**
** Loads +++++++++++++++++++++++++++++++++++++++++++++++++++
**
*Dload, op=NEW
*Cload, op=NEW
** Name: Load-1
*Cload
3688, 1, 281
**
** Field outputs +++++++++++++++++++++++++++++++++++++++++++
**
*Node file
RF, U
*El file
S
**
** End step ++++++++++++++++++++++++++++++++++++++++++++++++
**
*End step
**
** Step-2 ++++++++++++++++++++++++++++++++++++++++++++++++++
**
*Step
*Static
**
** Boundary conditions +++++++++++++++++++++++++++++++++++++
**
*Boundary, op=NEW
** Name: BC-1
*Boundary
bolt1_faces, 1, 1, 0
bolt1_faces, 2, 2, 0
bolt1_faces, 3, 3, 0
** Name: BC-2
*Boundary
bolt2_faces, 1, 1, 0
bolt2_faces, 2, 2, 0
bolt2_faces, 3, 3, 0
** Name: BC-3
*Boundary
bolt3_faces, 1, 1, 0
bolt3_faces, 2, 2, 0
bolt3_faces, 3, 3, 0
** Name: BC-4
*Boundary
bolt4_faces, 1, 1, 0
bolt4_faces, 2, 2, 0
bolt4_faces, 3, 3, 0
**
** Loads +++++++++++++++++++++++++++++++++++++++++++++++++++
**
*Dload, op=NEW
*Cload, op=NEW
** Name: Load-1
*Cload
3688, 1, 298
3688, 2, -298
**
** Field outputs +++++++++++++++++++++++++++++++++++++++++++
**
*Node file
RF, U
*El file
S
**
** End step ++++++++++++++++++++++++++++++++++++++++++++++++
**
*End step
**
** Step-3 ++++++++++++++++++++++++++++++++++++++++++++++++++
**
*Step
*Static
**
** Boundary conditions +++++++++++++++++++++++++++++++++++++
**
*Boundary, op=NEW
** Name: BC-1
*Boundary
bolt1_faces, 1, 1, 0
bolt1_faces, 2, 2, 0
bolt1_faces, 3, 3, 0
** Name: BC-2
*Boundary
bolt2_faces, 1, 1, 0
bolt2_faces, 2, 2, 0
bolt2_faces, 3, 3, 0
** Name: BC-3
*Boundary
bolt3_faces, 1, 1, 0
bolt3_faces, 2, 2, 0
bolt3_faces, 3, 3, 0
** Name: BC-4
*Boundary
bolt4_faces, 1, 1, 0
bolt4_faces, 2, 2, 0
bolt4_faces, 3, 3, 0
**
** Loads +++++++++++++++++++++++++++++++++++++++++++++++++++
**
*Dload, op=NEW
*Cload, op=NEW
** Name: Load-1
*Cload
3688, 2, -562
**
** Field outputs +++++++++++++++++++++++++++++++++++++++++++
**
*Node file
RF, U
*El file
S
**
** End step ++++++++++++++++++++++++++++++++++++++++++++++++
**
*End step
